Version 4
SHEET 1 1464 680
WIRE 144 0 64 0
WIRE 208 0 144 0
WIRE 352 0 272 0
WIRE 512 0 352 0
WIRE 784 0 512 0
WIRE 928 16 848 16
WIRE 992 16 928 16
WIRE 64 32 64 0
WIRE 512 32 512 0
WIRE 784 32 720 32
WIRE 144 112 144 0
WIRE 208 112 144 112
WIRE 352 112 352 0
WIRE 352 112 288 112
WIRE 352 160 352 112
WIRE 512 208 512 112
WIRE 560 208 512 208
WIRE 704 208 624 208
WIRE 720 208 720 32
WIRE 720 208 704 208
WIRE 768 208 720 208
WIRE 928 208 928 16
WIRE 928 208 848 208
WIRE 928 240 928 208
WIRE 352 272 352 240
WIRE 704 304 704 208
WIRE 704 304 608 304
WIRE 512 320 512 208
WIRE 544 320 512 320
WIRE 928 336 928 320
WIRE 928 336 608 336
WIRE 928 368 928 336
WIRE 144 464 144 112
WIRE 928 464 928 448
WIRE 928 464 144 464
FLAG 64 112 0
FLAG 352 272 0
FLAG 992 16 vout
SYMBOL voltage 64 16 R0
WINDOW 123 -19 -54 Left 2
WINDOW 39 0 0 Left 0
SYMATTR InstName V1
SYMATTR Value ""
SYMATTR Value2 AC 5m
SYMBOL cap 272 -16 R90
WINDOW 0 0 32 VBottom 2
WINDOW 3 32 32 VTop 2
SYMATTR InstName C1
SYMATTR Value {Co}
SYMBOL res 304 96 R90
WINDOW 0 0 56 VBottom 2
WINDOW 3 32 56 VTop 2
SYMATTR InstName R1
SYMATTR Value {Ro}
SYMBOL res 368 256 R180
WINDOW 0 36 76 Left 2
WINDOW 3 36 40 Left 2
SYMATTR InstName R2
SYMATTR Value {Ro}
SYMBOL res 496 16 R0
SYMATTR InstName R3
SYMATTR Value {Rq}
SYMBOL cap 624 192 R90
WINDOW 0 0 32 VBottom 2
WINDOW 3 32 32 VTop 2
SYMATTR InstName C2
SYMATTR Value {Co}
SYMBOL Opamps\\UniversalOpamp2 816 16 M180
SYMATTR InstName U1
SYMBOL Opamps\\UniversalOpamp2 576 320 M0
SYMATTR InstName U2
SYMBOL res 864 192 R90
WINDOW 0 0 56 VBottom 2
WINDOW 3 32 56 VTop 2
SYMATTR InstName R4
SYMATTR Value {Rq}
SYMBOL res 912 224 R0
SYMATTR InstName R5
SYMATTR Value 400k
SYMBOL res 912 352 R0
SYMATTR InstName R6
SYMATTR Value 400k
TEXT 126 486 Left 2 !.ac dec 101 1 500
TEXT 1040 152 Left 2 !.param Rq=2.6Meg
TEXT 1040 200 Left 2 !.param Ro=10Meg
TEXT 1032 240 Left 2 !.param Co=1n
TEXT 1040 104 Left 2 !;step param Rq 2.2Meg 3Meg .1Meg
